/*--------------------------------*- C++ -*----------------------------------*\
| =========                 |                                                 |
| \\      /  F ield         | OpenFOAM: The Open Source CFD Toolbox           |
|  \\    /   O peration     | Version:  v2112                                 |
|   \\  /    A nd           | Website:  www.openfoam.com                      |
|    \\/     M anipulation  |                                                 |
\*---------------------------------------------------------------------------*/
FoamFile
{
    version     2.0;
    format      ascii;
    class       dictionary;
    object      blockMeshDict;
}
// * * * * * * * * * * * * * * * * * * * * * * * * * * * * * * * * * * * * * //

scale   1;

vertices
(
    (0.5 0 0)
    (1 0 0)
    (1.5 0 0)
    (1.5 0.707107 0)
    (0.707107 0.707107 0)
    (0.353553 0.353553 0)
    (1.5 2 0)
    (0.707107 2 0)
    (0 2 0)
    (0 1 0)
    (0 0.5 0)
    (2 0.707107 0)
    (2 2 0)
    (0.5 0 0.5)
    (1 0 0.5)
    (1.5 0 0.5)
    (1.5 0.707107 0.5)
    (0.707107 0.707107 0.5)
    (0.353553 0.353553 0.5)
    (1.5 2 0.5)
    (0.707107 2 0.5)
    (0 2 0.5)
    (0 1 0.5)
    (0 0.5 0.5)
    (2 0.707107 0.5)
    (2 2 0.5)
    
);

blocks
(
    hex (5 4 9 10 18 17 22 23) (100 100 1) simpleGrading (1 1 1)
    hex (0 1 4 5 13 14 17 18) (100 100 1) simpleGrading (1 1 1)
    hex (1 2 3 4 14 15 16 17) (100 100 1) simpleGrading (1 1 1)
    hex (4 3 6 7 17 16 19 20) (100 200 1) simpleGrading (1 1 1)
    hex (9 4 7 8 22 17 20 21) (100 200 1) simpleGrading (1 1 1)
    hex (3 11 12 6 16 24 25 19) (100 200 1) simpleGrading (1 1 1)
);

edges
(
    arc  0  5 origin (0 0 0)
    arc  5 10 origin (0 0 0)
    arc  1  4 origin (0 0 0)
    arc  4  9 origin (0 0 0)
    arc 13 18 origin (0 0 0.5)
    arc 18 23 origin (0 0 0.5)
    arc 14 17 origin (0 0 0.5)
    arc 17 22 origin (0 0 0.5)
);

boundary
(
    left
    {
        type patch;
        faces
        (
            (8 9 22 21)
            (9 10 23 22)
        );
    }
    right
    {
        type patch;
        faces
        (
            (11 12 25 24)
        );
    }
    down
    {
        type patch;
        faces
        (
            (0 1 14 13)
            (1 2 15 14)
        );
    }
    up
    {
        type patch;
        faces
        (
            (7 8 21 20)
            (6 7 20 19)
            (12 6 19 25)
        );
    }
    hole
    {
        type patch;
        faces
        (
            (10 5 18 23)
            (5 0 13 18)
            (2 3 16 15)
            (3 11 24 16)
        );
    }
    frontAndBack
    {
        type empty;
        faces
        (
            (10 9 4 5)
            (5 4 1 0)
            (1 4 3 2)
            (4 7 6 3)
            (4 9 8 7)
            (3 6 12 11)
            (23 18 17 22)
            (18 13 14 17)
            (14 15 16 17)
            (17 16 19 20)
            (17 20 21 22)
            (16 19 25 24)
        );
    }
);


// ************************************************************************* //
