/*--------------------------------*- C++ -*----------------------------------*\
| =========                 |                                                 |
| \\      /  F ield         | OpenFOAM: The Open Source CFD Toolbox           |
|  \\    /   O peration     | Version:  2112                                  |
|   \\  /    A nd           | Website:  www.openfoam.com                      |
|    \\/     M anipulation  |                                                 |
\*---------------------------------------------------------------------------*/
FoamFile
{
    version     2.0;
    format      ascii;
    arch        "LSB;label=32;scalar=64";
    class       polyBoundaryMesh;
    location    "constant/polyMesh";
    object      boundary;
}
// * * * * * * * * * * * * * * * * * * * * * * * * * * * * * * * * * * * * * //

6
(
    left
    {
        type            patch;
        nFaces          300;
        startFace       179300;
    }
    right
    {
        type            patch;
        nFaces          200;
        startFace       179600;
    }
    down
    {
        type            patch;
        nFaces          200;
        startFace       179800;
    }
    up
    {
        type            patch;
        nFaces          300;
        startFace       180000;
    }
    hole
    {
        type            patch;
        nFaces          400;
        startFace       180300;
    }
    frontAndBack
    {
        type            empty;
        inGroups        1(empty);
        nFaces          180000;
        startFace       180700;
    }
)

// ************************************************************************* //
